// Generated for: spectre
// Generated on: Nov  3 19:34:31 2021
// Design library name: sram_6t
// Design cell name: sram_cell_6t_ckt_fin_layout_simulation_noise_margin
// Design view name: schematic
simulator lang=spectre
global 0
