// Generated for: spectre
// Generated on: Oct 31 11:31:53 2021
// Design library name: sram_6t
// Design cell name: sram_cell
// Design view name: schematic
simulator lang=spectre
global 0
