// Generated for: spectre
// Generated on: Oct 31 23:15:05 2021
// Design library name: sram_6t
// Design cell name: sram_cell_8t
// Design view name: schematic
simulator lang=spectre
global 0
