// Generated for: spectre
// Generated on: Oct 31 19:04:51 2021
// Design library name: sram_6t
// Design cell name: sram_cell_noise_margin
// Design view name: schematic
simulator lang=spectre
global 0
