// Generated for: spectre
// Generated on: Nov  3 16:30:51 2021
// Design library name: sram_6t
// Design cell name: sram_cell_8t_ckt_layout_simulation_noise_margin
// Design view name: schematic
simulator lang=spectre
global 0
