// Generated for: spectre
// Generated on: Oct 30 21:41:38 2021
// Design library name: sram_6t
// Design cell name: sram_cell
// Design view name: schematic
simulator lang=spectre
global 0
